97
BOMD INFORMATION -3111.8150697500 1_13_218 1
C      1.15765    3.24682    0.47337
C      1.87126    2.13050    0.89226
C      1.58152    1.56441    2.13928
C      0.59277    2.12258    2.94850
C     -0.12984    3.24252    2.51109
C      0.16374    3.79816    1.26642
N      2.88925    1.59132    0.05613
C      2.76220    0.44460   -0.63594
C      3.98707   -0.09265   -1.38028
C      3.53628   -0.76648   -2.69637
C      3.02316    0.23850   -3.73312
C      4.07945    1.30267   -4.04627
C      4.55011    2.00807   -2.77034
C      5.03209    0.99516   -1.72286
C      4.61448   -1.13468   -0.42547
Cl     2.46189    0.15913    2.67117
Cl     0.24664    1.48185    4.53448
O     -1.09382    3.71974    3.32666
O      1.68820   -0.18829   -0.60578
H      3.75813    2.09565   -0.01462
H     -1.42212    4.57067    3.01546
H     -0.37983    4.67037    0.92943
H      1.38600    3.68139   -0.48907
H      4.40377   -1.29218   -3.10092
H      2.78029   -1.52456   -2.49554
H      2.73777   -0.29045   -4.64272
H      2.11438    0.71935   -3.35681
H      4.93651    0.82654   -4.53006
H      3.68694    2.03107   -4.75581
H      5.35644    2.70589   -2.99560
H      3.72671    2.60792   -2.37025
H      5.39762    1.49281   -0.81920
H      5.90577    0.47278   -2.11755
H      3.90258   -1.91708   -0.16284
H      5.46851   -1.60278   -0.91243
H      4.96375   -0.67096    0.49693
H      1.49818   -1.89366   -0.76176
O      1.16502   -2.80702   -0.59551
H      1.82597   -3.43004   -0.91052
O     -1.98365   -0.58104    3.46854
H     -1.35663    0.03227    3.88309
H     -2.18661   -1.25899    4.12239
O     -3.82849   -3.62300   -2.19406
H     -4.08593   -4.55182   -2.16749
H     -3.99916   -3.33053   -3.09671
O     -0.03341   -2.27892    1.81809
H      0.53114   -2.61273    1.09145
H      0.54551   -1.74641    2.37576
O     -6.22607    0.18410    0.35188
H     -6.53096    0.71608   -0.39230
H     -7.00192    0.04464    0.90756
O     -0.82108    0.37054    0.28196
H      0.10584    0.25811   -0.03345
H     -1.01380    1.31240    0.26577
O     -3.65793    0.58905    1.50313
H     -3.65059    0.88405    2.42002
H     -4.57106    0.66783    1.17987
O     -1.56416   -2.72225   -0.70695
H     -2.13259   -3.12023   -1.38209
H     -0.63022   -2.89591   -0.92579
O     -4.28134   -1.89740    0.03014
H     -4.33196   -2.48894   -0.73868
H     -5.07472   -1.33943    0.03060
O     -2.62065   -3.26024    2.60717
H     -1.79095   -3.73745    2.73324
H     -3.32916   -3.91110    2.62624
Ca    -2.20390   -1.34131    1.12006
O     -0.53867    3.12562   -2.90783
H     -1.36786    3.45305   -2.57960
H     -0.42211    3.40475   -3.80838
O     -2.26392    3.57163    5.59218
H     -1.65012    3.61938    4.86867
H     -1.81047    3.27692    6.37322
O     -2.28734    6.38950    0.47092
H     -1.56787    6.84925    0.05440
H     -3.11099    6.77439    0.19529
O     -1.49376    4.97862   -1.19342
H     -1.27254    5.40626   -0.37447
H     -1.92771    4.15312   -1.01248
O     -2.78836    6.19650    3.54002
H     -2.21630    6.84742    3.92930
H     -3.61933    6.18929    4.00039
O     -1.35182    0.17175    6.99115
H     -1.72092   -0.70290    6.95579
H     -0.40426    0.11435    7.02770
O     -1.39595   -0.98661   -3.08859
H     -2.31269   -0.98509   -3.33777
H     -1.13749   -0.11071   -2.82686
O      5.13280    7.15701    0.69104
H      4.57714    6.43895    0.97056
H      5.84204    7.26925    1.31304
O     -4.65150   -7.04824    1.07309
H     -5.47273   -6.68614    0.76168
H     -4.49090   -7.88173    0.64647
O      4.25207    4.07530    6.17408
H      4.49008    4.72735    5.52547
H      3.33992    3.83488    6.06148
